CRYSTAL
PRIMVEC
   5.0351000   0.0000000   0.0000000
  -2.5175500   4.3605245   0.0000000
   0.0000000   0.0000000  13.7580996
CONVVEC
   5.0351000   0.0000000   0.0000000
  -2.5175500   4.3605245   0.0000000
   0.0000000   0.0000000  13.7580996
PRIMCOORD
    12  1
Fe      0.0000000   0.0000000   4.8885279
Fe      0.0000000   0.0000000   8.8695716
Fe     -0.0000025   2.9070178   0.3024993
Fe      2.5175525   1.4535067   9.4745565
Fe     -0.0000025   2.9070178   4.2835430
Fe      2.5175525   1.4535067  13.4556002
Fe      0.0000000   0.0000000   1.9905218
Fe      0.0000000   0.0000000  11.7675777
Fe     -0.0000025   2.9070178  11.1625928
Fe     -0.0000025   2.9070178   7.1815491
Fe      2.5175525   1.4535067   6.5765504
Fe      2.5175525   1.4535067   2.5955068
